# generated using pymatgen
data_Zn4H12C24O13
_symmetry_space_group_name_H-M   'P 1'
_cell_length_a   25.83200000
_cell_length_b   25.83200000
_cell_length_c   25.83200000
_cell_angle_alpha   90.00000000
_cell_angle_beta   90.00000000
_cell_angle_gamma   90.00000000
_symmetry_Int_Tables_number   1
_chemical_formula_structural   Zn4H12C24O13
_chemical_formula_sum   'Zn32 H96 C192 O104'
_cell_volume   17237.49273037
_cell_formula_units_Z   8
loop_
 _symmetry_equiv_pos_site_id
 _symmetry_equiv_pos_as_xyz
  1  'x, y, z'
loop_
 _atom_site_type_symbol
 _atom_site_label
 _atom_site_symmetry_multiplicity
 _atom_site_fract_x
 _atom_site_fract_y
 _atom_site_fract_z
 _atom_site_occupancy
  Zn  Zn1  1  0.29340000  0.20660000  0.20660000  1
  Zn  Zn1  1  0.70660000  0.79340000  0.20660000  1
  Zn  Zn1  1  0.70660000  0.20660000  0.79340000  1
  Zn  Zn1  1  0.29340000  0.79340000  0.79340000  1
  Zn  Zn1  1  0.20660000  0.29340000  0.20660000  1
  Zn  Zn1  1  0.20660000  0.70660000  0.79340000  1
  Zn  Zn1  1  0.79340000  0.70660000  0.20660000  1
  Zn  Zn1  1  0.79340000  0.29340000  0.79340000  1
  Zn  Zn1  1  0.20660000  0.20660000  0.29340000  1
  Zn  Zn1  1  0.79340000  0.20660000  0.70660000  1
  Zn  Zn1  1  0.20660000  0.79340000  0.70660000  1
  Zn  Zn1  1  0.79340000  0.79340000  0.29340000  1
  Zn  Zn1  1  0.20660000  0.29340000  0.79340000  1
  Zn  Zn1  1  0.79340000  0.70660000  0.79340000  1
  Zn  Zn1  1  0.20660000  0.70660000  0.20660000  1
  Zn  Zn1  1  0.79340000  0.29340000  0.20660000  1
  Zn  Zn1  1  0.29340000  0.20660000  0.79340000  1
  Zn  Zn1  1  0.70660000  0.20660000  0.20660000  1
  Zn  Zn1  1  0.70660000  0.79340000  0.79340000  1
  Zn  Zn1  1  0.29340000  0.79340000  0.20660000  1
  Zn  Zn1  1  0.20660000  0.20660000  0.70660000  1
  Zn  Zn1  1  0.20660000  0.79340000  0.29340000  1
  Zn  Zn1  1  0.79340000  0.20660000  0.29340000  1
  Zn  Zn1  1  0.79340000  0.79340000  0.70660000  1
  Zn  Zn1  1  0.29340000  0.70660000  0.70660000  1
  Zn  Zn1  1  0.70660000  0.29340000  0.70660000  1
  Zn  Zn1  1  0.70660000  0.70660000  0.29340000  1
  Zn  Zn1  1  0.29340000  0.29340000  0.29340000  1
  Zn  Zn1  1  0.29340000  0.70660000  0.29340000  1
  Zn  Zn1  1  0.70660000  0.70660000  0.70660000  1
  Zn  Zn1  1  0.70660000  0.29340000  0.29340000  1
  Zn  Zn1  1  0.29340000  0.29340000  0.70660000  1
  H  H1  1  0.30490000  0.19510000  0.04480000  1
  H  H1  1  0.69510000  0.80490000  0.04480000  1
  H  H1  1  0.69510000  0.19510000  0.95520000  1
  H  H1  1  0.30490000  0.80490000  0.95520000  1
  H  H1  1  0.04480000  0.30490000  0.19510000  1
  H  H1  1  0.04480000  0.69510000  0.80490000  1
  H  H1  1  0.95520000  0.69510000  0.19510000  1
  H  H1  1  0.95520000  0.30490000  0.80490000  1
  H  H1  1  0.19510000  0.04480000  0.30490000  1
  H  H1  1  0.80490000  0.04480000  0.69510000  1
  H  H1  1  0.19510000  0.95520000  0.69510000  1
  H  H1  1  0.80490000  0.95520000  0.30490000  1
  H  H1  1  0.19510000  0.30490000  0.95520000  1
  H  H1  1  0.80490000  0.69510000  0.95520000  1
  H  H1  1  0.19510000  0.69510000  0.04480000  1
  H  H1  1  0.80490000  0.30490000  0.04480000  1
  H  H1  1  0.30490000  0.04480000  0.80490000  1
  H  H1  1  0.69510000  0.04480000  0.19510000  1
  H  H1  1  0.69510000  0.95520000  0.80490000  1
  H  H1  1  0.30490000  0.95520000  0.19510000  1
  H  H1  1  0.04480000  0.19510000  0.69510000  1
  H  H1  1  0.04480000  0.80490000  0.30490000  1
  H  H1  1  0.95520000  0.19510000  0.30490000  1
  H  H1  1  0.95520000  0.80490000  0.69510000  1
  H  H1  1  0.69510000  0.80490000  0.95520000  1
  H  H1  1  0.30490000  0.19510000  0.95520000  1
  H  H1  1  0.30490000  0.80490000  0.04480000  1
  H  H1  1  0.69510000  0.19510000  0.04480000  1
  H  H1  1  0.95520000  0.69510000  0.80490000  1
  H  H1  1  0.95520000  0.30490000  0.19510000  1
  H  H1  1  0.04480000  0.30490000  0.80490000  1
  H  H1  1  0.04480000  0.69510000  0.19510000  1
  H  H1  1  0.80490000  0.95520000  0.69510000  1
  H  H1  1  0.19510000  0.95520000  0.30490000  1
  H  H1  1  0.80490000  0.04480000  0.30490000  1
  H  H1  1  0.19510000  0.04480000  0.69510000  1
  H  H1  1  0.80490000  0.69510000  0.04480000  1
  H  H1  1  0.19510000  0.30490000  0.04480000  1
  H  H1  1  0.80490000  0.30490000  0.95520000  1
  H  H1  1  0.19510000  0.69510000  0.95520000  1
  H  H1  1  0.69510000  0.95520000  0.19510000  1
  H  H1  1  0.30490000  0.95520000  0.80490000  1
  H  H1  1  0.30490000  0.04480000  0.19510000  1
  H  H1  1  0.69510000  0.04480000  0.80490000  1
  H  H1  1  0.95520000  0.80490000  0.30490000  1
  H  H1  1  0.95520000  0.19510000  0.69510000  1
  H  H1  1  0.04480000  0.80490000  0.69510000  1
  H  H1  1  0.04480000  0.19510000  0.30490000  1
  H  H1  1  0.30490000  0.69510000  0.54480000  1
  H  H1  1  0.69510000  0.30490000  0.54480000  1
  H  H1  1  0.69510000  0.69510000  0.45520000  1
  H  H1  1  0.30490000  0.30490000  0.45520000  1
  H  H1  1  0.19510000  0.54480000  0.80490000  1
  H  H1  1  0.80490000  0.54480000  0.19510000  1
  H  H1  1  0.19510000  0.45520000  0.19510000  1
  H  H1  1  0.80490000  0.45520000  0.80490000  1
  H  H1  1  0.19510000  0.80490000  0.45520000  1
  H  H1  1  0.80490000  0.19510000  0.45520000  1
  H  H1  1  0.19510000  0.19510000  0.54480000  1
  H  H1  1  0.80490000  0.80490000  0.54480000  1
  H  H1  1  0.30490000  0.54480000  0.30490000  1
  H  H1  1  0.69510000  0.54480000  0.69510000  1
  H  H1  1  0.69510000  0.45520000  0.30490000  1
  H  H1  1  0.30490000  0.45520000  0.69510000  1
  H  H1  1  0.69510000  0.30490000  0.45520000  1
  H  H1  1  0.30490000  0.69510000  0.45520000  1
  H  H1  1  0.30490000  0.30490000  0.54480000  1
  H  H1  1  0.69510000  0.69510000  0.54480000  1
  H  H1  1  0.80490000  0.45520000  0.19510000  1
  H  H1  1  0.19510000  0.45520000  0.80490000  1
  H  H1  1  0.80490000  0.54480000  0.80490000  1
  H  H1  1  0.19510000  0.54480000  0.19510000  1
  H  H1  1  0.80490000  0.19510000  0.54480000  1
  H  H1  1  0.19510000  0.80490000  0.54480000  1
  H  H1  1  0.80490000  0.80490000  0.45520000  1
  H  H1  1  0.19510000  0.19510000  0.45520000  1
  H  H1  1  0.69510000  0.45520000  0.69510000  1
  H  H1  1  0.30490000  0.45520000  0.30490000  1
  H  H1  1  0.30490000  0.54480000  0.69510000  1
  H  H1  1  0.69510000  0.54480000  0.30490000  1
  H  H1  1  0.54480000  0.30490000  0.69510000  1
  H  H1  1  0.54480000  0.69510000  0.30490000  1
  H  H1  1  0.45520000  0.69510000  0.69510000  1
  H  H1  1  0.45520000  0.30490000  0.30490000  1
  H  H1  1  0.54480000  0.19510000  0.19510000  1
  H  H1  1  0.54480000  0.80490000  0.80490000  1
  H  H1  1  0.45520000  0.19510000  0.80490000  1
  H  H1  1  0.45520000  0.80490000  0.19510000  1
  H  H1  1  0.45520000  0.69510000  0.30490000  1
  H  H1  1  0.45520000  0.30490000  0.69510000  1
  H  H1  1  0.54480000  0.30490000  0.30490000  1
  H  H1  1  0.54480000  0.69510000  0.69510000  1
  H  H1  1  0.45520000  0.80490000  0.80490000  1
  H  H1  1  0.45520000  0.19510000  0.19510000  1
  H  H1  1  0.54480000  0.80490000  0.19510000  1
  H  H1  1  0.54480000  0.19510000  0.80490000  1
  C  C1  1  0.25000000  0.25000000  0.11130000  1
  C  C1  1  0.75000000  0.75000000  0.11130000  1
  C  C1  1  0.75000000  0.25000000  0.88870000  1
  C  C1  1  0.25000000  0.75000000  0.88870000  1
  C  C1  1  0.11130000  0.25000000  0.25000000  1
  C  C1  1  0.11130000  0.75000000  0.75000000  1
  C  C1  1  0.88870000  0.75000000  0.25000000  1
  C  C1  1  0.88870000  0.25000000  0.75000000  1
  C  C1  1  0.25000000  0.11130000  0.25000000  1
  C  C1  1  0.75000000  0.11130000  0.75000000  1
  C  C1  1  0.25000000  0.88870000  0.75000000  1
  C  C1  1  0.75000000  0.88870000  0.25000000  1
  C  C1  1  0.25000000  0.25000000  0.88870000  1
  C  C1  1  0.75000000  0.75000000  0.88870000  1
  C  C1  1  0.25000000  0.75000000  0.11130000  1
  C  C1  1  0.75000000  0.25000000  0.11130000  1
  C  C1  1  0.25000000  0.11130000  0.75000000  1
  C  C1  1  0.75000000  0.11130000  0.25000000  1
  C  C1  1  0.75000000  0.88870000  0.75000000  1
  C  C1  1  0.25000000  0.88870000  0.25000000  1
  C  C1  1  0.11130000  0.25000000  0.75000000  1
  C  C1  1  0.11130000  0.75000000  0.25000000  1
  C  C1  1  0.88870000  0.25000000  0.25000000  1
  C  C1  1  0.88870000  0.75000000  0.75000000  1
  C  C1  1  0.25000000  0.75000000  0.61130000  1
  C  C1  1  0.75000000  0.25000000  0.61130000  1
  C  C1  1  0.75000000  0.75000000  0.38870000  1
  C  C1  1  0.25000000  0.25000000  0.38870000  1
  C  C1  1  0.25000000  0.61130000  0.75000000  1
  C  C1  1  0.75000000  0.61130000  0.25000000  1
  C  C1  1  0.25000000  0.38870000  0.25000000  1
  C  C1  1  0.75000000  0.38870000  0.75000000  1
  C  C1  1  0.25000000  0.75000000  0.38870000  1
  C  C1  1  0.75000000  0.25000000  0.38870000  1
  C  C1  1  0.25000000  0.25000000  0.61130000  1
  C  C1  1  0.75000000  0.75000000  0.61130000  1
  C  C1  1  0.25000000  0.61130000  0.25000000  1
  C  C1  1  0.75000000  0.61130000  0.75000000  1
  C  C1  1  0.75000000  0.38870000  0.25000000  1
  C  C1  1  0.25000000  0.38870000  0.75000000  1
  C  C1  1  0.61130000  0.25000000  0.75000000  1
  C  C1  1  0.61130000  0.75000000  0.25000000  1
  C  C1  1  0.38870000  0.75000000  0.75000000  1
  C  C1  1  0.38870000  0.25000000  0.25000000  1
  C  C1  1  0.61130000  0.25000000  0.25000000  1
  C  C1  1  0.61130000  0.75000000  0.75000000  1
  C  C1  1  0.38870000  0.25000000  0.75000000  1
  C  C1  1  0.38870000  0.75000000  0.25000000  1
  C  C2  1  0.25000000  0.25000000  0.05380000  1
  C  C2  1  0.75000000  0.75000000  0.05380000  1
  C  C2  1  0.75000000  0.25000000  0.94620000  1
  C  C2  1  0.25000000  0.75000000  0.94620000  1
  C  C2  1  0.05380000  0.25000000  0.25000000  1
  C  C2  1  0.05380000  0.75000000  0.75000000  1
  C  C2  1  0.94620000  0.75000000  0.25000000  1
  C  C2  1  0.94620000  0.25000000  0.75000000  1
  C  C2  1  0.25000000  0.05380000  0.25000000  1
  C  C2  1  0.75000000  0.05380000  0.75000000  1
  C  C2  1  0.25000000  0.94620000  0.75000000  1
  C  C2  1  0.75000000  0.94620000  0.25000000  1
  C  C2  1  0.25000000  0.25000000  0.94620000  1
  C  C2  1  0.75000000  0.75000000  0.94620000  1
  C  C2  1  0.25000000  0.75000000  0.05380000  1
  C  C2  1  0.75000000  0.25000000  0.05380000  1
  C  C2  1  0.25000000  0.05380000  0.75000000  1
  C  C2  1  0.75000000  0.05380000  0.25000000  1
  C  C2  1  0.75000000  0.94620000  0.75000000  1
  C  C2  1  0.25000000  0.94620000  0.25000000  1
  C  C2  1  0.05380000  0.25000000  0.75000000  1
  C  C2  1  0.05380000  0.75000000  0.25000000  1
  C  C2  1  0.94620000  0.25000000  0.25000000  1
  C  C2  1  0.94620000  0.75000000  0.75000000  1
  C  C2  1  0.25000000  0.75000000  0.55380000  1
  C  C2  1  0.75000000  0.25000000  0.55380000  1
  C  C2  1  0.75000000  0.75000000  0.44620000  1
  C  C2  1  0.25000000  0.25000000  0.44620000  1
  C  C2  1  0.25000000  0.55380000  0.75000000  1
  C  C2  1  0.75000000  0.55380000  0.25000000  1
  C  C2  1  0.25000000  0.44620000  0.25000000  1
  C  C2  1  0.75000000  0.44620000  0.75000000  1
  C  C2  1  0.25000000  0.75000000  0.44620000  1
  C  C2  1  0.75000000  0.25000000  0.44620000  1
  C  C2  1  0.25000000  0.25000000  0.55380000  1
  C  C2  1  0.75000000  0.75000000  0.55380000  1
  C  C2  1  0.25000000  0.55380000  0.25000000  1
  C  C2  1  0.75000000  0.55380000  0.75000000  1
  C  C2  1  0.75000000  0.44620000  0.25000000  1
  C  C2  1  0.25000000  0.44620000  0.75000000  1
  C  C2  1  0.55380000  0.25000000  0.75000000  1
  C  C2  1  0.55380000  0.75000000  0.25000000  1
  C  C2  1  0.44620000  0.75000000  0.75000000  1
  C  C2  1  0.44620000  0.25000000  0.25000000  1
  C  C2  1  0.55380000  0.25000000  0.25000000  1
  C  C2  1  0.55380000  0.75000000  0.75000000  1
  C  C2  1  0.44620000  0.25000000  0.75000000  1
  C  C2  1  0.44620000  0.75000000  0.25000000  1
  C  C3  1  0.28290000  0.21710000  0.02690000  1
  C  C3  1  0.71710000  0.78290000  0.02690000  1
  C  C3  1  0.71710000  0.21710000  0.97310000  1
  C  C3  1  0.28290000  0.78290000  0.97310000  1
  C  C3  1  0.02690000  0.28290000  0.21710000  1
  C  C3  1  0.02690000  0.71710000  0.78290000  1
  C  C3  1  0.97310000  0.71710000  0.21710000  1
  C  C3  1  0.97310000  0.28290000  0.78290000  1
  C  C3  1  0.21710000  0.02690000  0.28290000  1
  C  C3  1  0.78290000  0.02690000  0.71710000  1
  C  C3  1  0.21710000  0.97310000  0.71710000  1
  C  C3  1  0.78290000  0.97310000  0.28290000  1
  C  C3  1  0.21710000  0.28290000  0.97310000  1
  C  C3  1  0.78290000  0.71710000  0.97310000  1
  C  C3  1  0.21710000  0.71710000  0.02690000  1
  C  C3  1  0.78290000  0.28290000  0.02690000  1
  C  C3  1  0.28290000  0.02690000  0.78290000  1
  C  C3  1  0.71710000  0.02690000  0.21710000  1
  C  C3  1  0.71710000  0.97310000  0.78290000  1
  C  C3  1  0.28290000  0.97310000  0.21710000  1
  C  C3  1  0.02690000  0.21710000  0.71710000  1
  C  C3  1  0.02690000  0.78290000  0.28290000  1
  C  C3  1  0.97310000  0.21710000  0.28290000  1
  C  C3  1  0.97310000  0.78290000  0.71710000  1
  C  C3  1  0.71710000  0.78290000  0.97310000  1
  C  C3  1  0.28290000  0.21710000  0.97310000  1
  C  C3  1  0.28290000  0.78290000  0.02690000  1
  C  C3  1  0.71710000  0.21710000  0.02690000  1
  C  C3  1  0.97310000  0.71710000  0.78290000  1
  C  C3  1  0.97310000  0.28290000  0.21710000  1
  C  C3  1  0.02690000  0.28290000  0.78290000  1
  C  C3  1  0.02690000  0.71710000  0.21710000  1
  C  C3  1  0.78290000  0.97310000  0.71710000  1
  C  C3  1  0.21710000  0.97310000  0.28290000  1
  C  C3  1  0.78290000  0.02690000  0.28290000  1
  C  C3  1  0.21710000  0.02690000  0.71710000  1
  C  C3  1  0.78290000  0.71710000  0.02690000  1
  C  C3  1  0.21710000  0.28290000  0.02690000  1
  C  C3  1  0.78290000  0.28290000  0.97310000  1
  C  C3  1  0.21710000  0.71710000  0.97310000  1
  C  C3  1  0.71710000  0.97310000  0.21710000  1
  C  C3  1  0.28290000  0.97310000  0.78290000  1
  C  C3  1  0.28290000  0.02690000  0.21710000  1
  C  C3  1  0.71710000  0.02690000  0.78290000  1
  C  C3  1  0.97310000  0.78290000  0.28290000  1
  C  C3  1  0.97310000  0.21710000  0.71710000  1
  C  C3  1  0.02690000  0.78290000  0.71710000  1
  C  C3  1  0.02690000  0.21710000  0.28290000  1
  C  C3  1  0.28290000  0.71710000  0.52690000  1
  C  C3  1  0.71710000  0.28290000  0.52690000  1
  C  C3  1  0.71710000  0.71710000  0.47310000  1
  C  C3  1  0.28290000  0.28290000  0.47310000  1
  C  C3  1  0.21710000  0.52690000  0.78290000  1
  C  C3  1  0.78290000  0.52690000  0.21710000  1
  C  C3  1  0.21710000  0.47310000  0.21710000  1
  C  C3  1  0.78290000  0.47310000  0.78290000  1
  C  C3  1  0.21710000  0.78290000  0.47310000  1
  C  C3  1  0.78290000  0.21710000  0.47310000  1
  C  C3  1  0.21710000  0.21710000  0.52690000  1
  C  C3  1  0.78290000  0.78290000  0.52690000  1
  C  C3  1  0.28290000  0.52690000  0.28290000  1
  C  C3  1  0.71710000  0.52690000  0.71710000  1
  C  C3  1  0.71710000  0.47310000  0.28290000  1
  C  C3  1  0.28290000  0.47310000  0.71710000  1
  C  C3  1  0.71710000  0.28290000  0.47310000  1
  C  C3  1  0.28290000  0.71710000  0.47310000  1
  C  C3  1  0.28290000  0.28290000  0.52690000  1
  C  C3  1  0.71710000  0.71710000  0.52690000  1
  C  C3  1  0.78290000  0.47310000  0.21710000  1
  C  C3  1  0.21710000  0.47310000  0.78290000  1
  C  C3  1  0.78290000  0.52690000  0.78290000  1
  C  C3  1  0.21710000  0.52690000  0.21710000  1
  C  C3  1  0.78290000  0.21710000  0.52690000  1
  C  C3  1  0.21710000  0.78290000  0.52690000  1
  C  C3  1  0.78290000  0.78290000  0.47310000  1
  C  C3  1  0.21710000  0.21710000  0.47310000  1
  C  C3  1  0.71710000  0.47310000  0.71710000  1
  C  C3  1  0.28290000  0.47310000  0.28290000  1
  C  C3  1  0.28290000  0.52690000  0.71710000  1
  C  C3  1  0.71710000  0.52690000  0.28290000  1
  C  C3  1  0.52690000  0.28290000  0.71710000  1
  C  C3  1  0.52690000  0.71710000  0.28290000  1
  C  C3  1  0.47310000  0.71710000  0.71710000  1
  C  C3  1  0.47310000  0.28290000  0.28290000  1
  C  C3  1  0.52690000  0.21710000  0.21710000  1
  C  C3  1  0.52690000  0.78290000  0.78290000  1
  C  C3  1  0.47310000  0.21710000  0.78290000  1
  C  C3  1  0.47310000  0.78290000  0.21710000  1
  C  C3  1  0.47310000  0.71710000  0.28290000  1
  C  C3  1  0.47310000  0.28290000  0.71710000  1
  C  C3  1  0.52690000  0.28290000  0.28290000  1
  C  C3  1  0.52690000  0.71710000  0.71710000  1
  C  C3  1  0.47310000  0.78290000  0.78290000  1
  C  C3  1  0.47310000  0.21710000  0.21710000  1
  C  C3  1  0.52690000  0.78290000  0.21710000  1
  C  C3  1  0.52690000  0.21710000  0.78290000  1
  O  O1  1  0.25000000  0.25000000  0.25000000  1
  O  O1  1  0.75000000  0.75000000  0.25000000  1
  O  O1  1  0.75000000  0.25000000  0.75000000  1
  O  O1  1  0.25000000  0.75000000  0.75000000  1
  O  O1  1  0.25000000  0.25000000  0.75000000  1
  O  O1  1  0.75000000  0.75000000  0.75000000  1
  O  O1  1  0.25000000  0.75000000  0.25000000  1
  O  O1  1  0.75000000  0.25000000  0.25000000  1
  O  O2  1  0.28190000  0.21810000  0.13400000  1
  O  O2  1  0.71810000  0.78190000  0.13400000  1
  O  O2  1  0.71810000  0.21810000  0.86600000  1
  O  O2  1  0.28190000  0.78190000  0.86600000  1
  O  O2  1  0.13400000  0.28190000  0.21810000  1
  O  O2  1  0.13400000  0.71810000  0.78190000  1
  O  O2  1  0.86600000  0.71810000  0.21810000  1
  O  O2  1  0.86600000  0.28190000  0.78190000  1
  O  O2  1  0.21810000  0.13400000  0.28190000  1
  O  O2  1  0.78190000  0.13400000  0.71810000  1
  O  O2  1  0.21810000  0.86600000  0.71810000  1
  O  O2  1  0.78190000  0.86600000  0.28190000  1
  O  O2  1  0.21810000  0.28190000  0.86600000  1
  O  O2  1  0.78190000  0.71810000  0.86600000  1
  O  O2  1  0.21810000  0.71810000  0.13400000  1
  O  O2  1  0.78190000  0.28190000  0.13400000  1
  O  O2  1  0.28190000  0.13400000  0.78190000  1
  O  O2  1  0.71810000  0.13400000  0.21810000  1
  O  O2  1  0.71810000  0.86600000  0.78190000  1
  O  O2  1  0.28190000  0.86600000  0.21810000  1
  O  O2  1  0.13400000  0.21810000  0.71810000  1
  O  O2  1  0.13400000  0.78190000  0.28190000  1
  O  O2  1  0.86600000  0.21810000  0.28190000  1
  O  O2  1  0.86600000  0.78190000  0.71810000  1
  O  O2  1  0.71810000  0.78190000  0.86600000  1
  O  O2  1  0.28190000  0.21810000  0.86600000  1
  O  O2  1  0.28190000  0.78190000  0.13400000  1
  O  O2  1  0.71810000  0.21810000  0.13400000  1
  O  O2  1  0.86600000  0.71810000  0.78190000  1
  O  O2  1  0.86600000  0.28190000  0.21810000  1
  O  O2  1  0.13400000  0.28190000  0.78190000  1
  O  O2  1  0.13400000  0.71810000  0.21810000  1
  O  O2  1  0.78190000  0.86600000  0.71810000  1
  O  O2  1  0.21810000  0.86600000  0.28190000  1
  O  O2  1  0.78190000  0.13400000  0.28190000  1
  O  O2  1  0.21810000  0.13400000  0.71810000  1
  O  O2  1  0.78190000  0.71810000  0.13400000  1
  O  O2  1  0.21810000  0.28190000  0.13400000  1
  O  O2  1  0.78190000  0.28190000  0.86600000  1
  O  O2  1  0.21810000  0.71810000  0.86600000  1
  O  O2  1  0.71810000  0.86600000  0.21810000  1
  O  O2  1  0.28190000  0.86600000  0.78190000  1
  O  O2  1  0.28190000  0.13400000  0.21810000  1
  O  O2  1  0.71810000  0.13400000  0.78190000  1
  O  O2  1  0.86600000  0.78190000  0.28190000  1
  O  O2  1  0.86600000  0.21810000  0.71810000  1
  O  O2  1  0.13400000  0.78190000  0.71810000  1
  O  O2  1  0.13400000  0.21810000  0.28190000  1
  O  O2  1  0.28190000  0.71810000  0.63400000  1
  O  O2  1  0.71810000  0.28190000  0.63400000  1
  O  O2  1  0.71810000  0.71810000  0.36600000  1
  O  O2  1  0.28190000  0.28190000  0.36600000  1
  O  O2  1  0.21810000  0.63400000  0.78190000  1
  O  O2  1  0.78190000  0.63400000  0.21810000  1
  O  O2  1  0.21810000  0.36600000  0.21810000  1
  O  O2  1  0.78190000  0.36600000  0.78190000  1
  O  O2  1  0.21810000  0.78190000  0.36600000  1
  O  O2  1  0.78190000  0.21810000  0.36600000  1
  O  O2  1  0.21810000  0.21810000  0.63400000  1
  O  O2  1  0.78190000  0.78190000  0.63400000  1
  O  O2  1  0.28190000  0.63400000  0.28190000  1
  O  O2  1  0.71810000  0.63400000  0.71810000  1
  O  O2  1  0.71810000  0.36600000  0.28190000  1
  O  O2  1  0.28190000  0.36600000  0.71810000  1
  O  O2  1  0.71810000  0.28190000  0.36600000  1
  O  O2  1  0.28190000  0.71810000  0.36600000  1
  O  O2  1  0.28190000  0.28190000  0.63400000  1
  O  O2  1  0.71810000  0.71810000  0.63400000  1
  O  O2  1  0.78190000  0.36600000  0.21810000  1
  O  O2  1  0.21810000  0.36600000  0.78190000  1
  O  O2  1  0.78190000  0.63400000  0.78190000  1
  O  O2  1  0.21810000  0.63400000  0.21810000  1
  O  O2  1  0.78190000  0.21810000  0.63400000  1
  O  O2  1  0.21810000  0.78190000  0.63400000  1
  O  O2  1  0.78190000  0.78190000  0.36600000  1
  O  O2  1  0.21810000  0.21810000  0.36600000  1
  O  O2  1  0.71810000  0.36600000  0.71810000  1
  O  O2  1  0.28190000  0.36600000  0.28190000  1
  O  O2  1  0.28190000  0.63400000  0.71810000  1
  O  O2  1  0.71810000  0.63400000  0.28190000  1
  O  O2  1  0.63400000  0.28190000  0.71810000  1
  O  O2  1  0.63400000  0.71810000  0.28190000  1
  O  O2  1  0.36600000  0.71810000  0.71810000  1
  O  O2  1  0.36600000  0.28190000  0.28190000  1
  O  O2  1  0.63400000  0.21810000  0.21810000  1
  O  O2  1  0.63400000  0.78190000  0.78190000  1
  O  O2  1  0.36600000  0.21810000  0.78190000  1
  O  O2  1  0.36600000  0.78190000  0.21810000  1
  O  O2  1  0.36600000  0.71810000  0.28190000  1
  O  O2  1  0.36600000  0.28190000  0.71810000  1
  O  O2  1  0.63400000  0.28190000  0.28190000  1
  O  O2  1  0.63400000  0.71810000  0.71810000  1
  O  O2  1  0.36600000  0.78190000  0.78190000  1
  O  O2  1  0.36600000  0.21810000  0.21810000  1
  O  O2  1  0.63400000  0.78190000  0.21810000  1
  O  O2  1  0.63400000  0.21810000  0.78190000  1
