# generated using pymatgen
data_Zn4H12C24O13
_symmetry_space_group_name_H-M   'P 1'
_cell_length_a   25.86106000
_cell_length_b   25.86106002
_cell_length_c   25.86106000
_cell_angle_alpha   90.00000016
_cell_angle_beta   90.00000023
_cell_angle_gamma   89.99999996
_symmetry_Int_Tables_number   1
_chemical_formula_structural   Zn4H12C24O13
_chemical_formula_sum   'Zn32 H96 C192 O104'
_cell_volume   17295.73275210
_cell_formula_units_Z   8
loop_
 _symmetry_equiv_pos_site_id
 _symmetry_equiv_pos_as_xyz
  1  'x, y, z'
loop_
 _atom_site_type_symbol
 _atom_site_label
 _atom_site_symmetry_multiplicity
 _atom_site_fract_x
 _atom_site_fract_y
 _atom_site_fract_z
 _atom_site_occupancy
  Zn  Zn0  1  0.29378977  0.20621027  0.20621024  1
  Zn  Zn1  1  0.70621026  0.79378967  0.20621031  1
  Zn  Zn2  1  0.70621026  0.20621010  0.79378983  1
  Zn  Zn3  1  0.29378960  0.79378962  0.79378972  1
  Zn  Zn4  1  0.20621024  0.29378981  0.20621020  1
  Zn  Zn5  1  0.20621023  0.70621029  0.79378989  1
  Zn  Zn6  1  0.79378983  0.70621016  0.20621014  1
  Zn  Zn7  1  0.79378981  0.29378964  0.79378970  1
  Zn  Zn8  1  0.20621023  0.20621018  0.29378982  1
  Zn  Zn9  1  0.79378971  0.20621033  0.70621029  1
  Zn  Zn10  1  0.20621025  0.79378989  0.70621030  1
  Zn  Zn11  1  0.79378968  0.79378985  0.29378977  1
  Zn  Zn12  1  0.20621031  0.29378963  0.79378976  1
  Zn  Zn13  1  0.79378978  0.70621019  0.79378968  1
  Zn  Zn14  1  0.20621012  0.70621021  0.20621011  1
  Zn  Zn15  1  0.79378983  0.29378982  0.20621023  1
  Zn  Zn16  1  0.29378970  0.20621028  0.79378983  1
  Zn  Zn17  1  0.70621023  0.20621017  0.20621023  1
  Zn  Zn18  1  0.70621016  0.79378988  0.79378987  1
  Zn  Zn19  1  0.29378970  0.79378985  0.20621035  1
  Zn  Zn20  1  0.20621013  0.20621018  0.70621025  1
  Zn  Zn21  1  0.20621034  0.79378971  0.29378974  1
  Zn  Zn22  1  0.79378968  0.20621029  0.29378968  1
  Zn  Zn23  1  0.79378986  0.79378964  0.70621018  1
  Zn  Zn24  1  0.29378994  0.70621021  0.70621019  1
  Zn  Zn25  1  0.70621020  0.29378989  0.70621011  1
  Zn  Zn26  1  0.70621021  0.70621029  0.29378977  1
  Zn  Zn27  1  0.29378976  0.29378974  0.29378972  1
  Zn  Zn28  1  0.29378985  0.70621029  0.29378981  1
  Zn  Zn29  1  0.70621028  0.70621027  0.70621027  1
  Zn  Zn30  1  0.70621025  0.29378973  0.29378989  1
  Zn  Zn31  1  0.29378986  0.29378990  0.70621017  1
  H  H32  1  0.30890288  0.19109712  0.04809340  1
  H  H33  1  0.69109699  0.80890301  0.04809349  1
  H  H34  1  0.69109724  0.19109723  0.95190663  1
  H  H35  1  0.30890290  0.80890291  0.95190662  1
  H  H36  1  0.04809335  0.30890281  0.19109720  1
  H  H37  1  0.04809341  0.69109719  0.80890280  1
  H  H38  1  0.95190662  0.69109717  0.19109717  1
  H  H39  1  0.95190667  0.30890273  0.80890273  1
  H  H40  1  0.19109723  0.04809336  0.30890278  1
  H  H41  1  0.80890293  0.04809342  0.69109708  1
  H  H42  1  0.19109746  0.95190684  0.69109746  1
  H  H43  1  0.80890274  0.95190669  0.30890275  1
  H  H44  1  0.19109712  0.30890289  0.95190661  1
  H  H45  1  0.80890298  0.69109699  0.95190651  1
  H  H46  1  0.19109737  0.69109736  0.04809327  1
  H  H47  1  0.80890273  0.30890275  0.04809334  1
  H  H48  1  0.30890295  0.04809345  0.80890295  1
  H  H49  1  0.69109720  0.04809341  0.19109722  1
  H  H50  1  0.69109736  0.95190671  0.80890265  1
  H  H51  1  0.30890275  0.95190668  0.19109725  1
  H  H52  1  0.04809330  0.19109731  0.69109734  1
  H  H53  1  0.04809348  0.80890299  0.30890298  1
  H  H54  1  0.95190660  0.19109707  0.30890293  1
  H  H55  1  0.95190667  0.80890282  0.69109721  1
  H  H56  1  0.69109730  0.80890269  0.95190661  1
  H  H57  1  0.30890285  0.19109714  0.95190663  1
  H  H58  1  0.30890295  0.80890295  0.04809343  1
  H  H59  1  0.69109709  0.19109709  0.04809343  1
  H  H60  1  0.95190650  0.69109701  0.80890297  1
  H  H61  1  0.95190670  0.30890273  0.19109727  1
  H  H62  1  0.04809347  0.30890304  0.80890302  1
  H  H63  1  0.04809326  0.69109738  0.19109740  1
  H  H64  1  0.80890295  0.95190654  0.69109703  1
  H  H65  1  0.19109709  0.95190661  0.30890291  1
  H  H66  1  0.80890281  0.04809333  0.30890281  1
  H  H67  1  0.19109731  0.04809326  0.69109731  1
  H  H68  1  0.80890270  0.69109728  0.04809335  1
  H  H69  1  0.19109714  0.30890287  0.04809341  1
  H  H70  1  0.80890303  0.30890305  0.95190648  1
  H  H71  1  0.19109725  0.69109725  0.95190666  1
  H  H72  1  0.69109689  0.95190643  0.19109690  1
  H  H73  1  0.30890294  0.95190658  0.80890295  1
  H  H74  1  0.30890289  0.04809340  0.19109712  1
  H  H75  1  0.69109727  0.04809335  0.80890273  1
  H  H76  1  0.95190648  0.80890302  0.30890301  1
  H  H77  1  0.95190670  0.19109722  0.69109723  1
  H  H78  1  0.04809330  0.80890275  0.69109727  1
  H  H79  1  0.04809339  0.19109717  0.30890281  1
  H  H80  1  0.30890275  0.69109722  0.54809336  1
  H  H81  1  0.69109736  0.30890266  0.54809326  1
  H  H82  1  0.69109721  0.69109719  0.45190663  1
  H  H83  1  0.30890295  0.30890296  0.45190651  1
  H  H84  1  0.19109709  0.54809347  0.80890292  1
  H  H85  1  0.80890268  0.54809329  0.19109733  1
  H  H86  1  0.19109721  0.45190665  0.19109721  1
  H  H87  1  0.80890296  0.45190659  0.80890297  1
  H  H88  1  0.19109724  0.80890276  0.45190670  1
  H  H89  1  0.80890295  0.19109705  0.45190655  1
  H  H90  1  0.19109704  0.19109703  0.54809347  1
  H  H91  1  0.80890270  0.80890271  0.54809328  1
  H  H92  1  0.30890284  0.54809339  0.30890284  1
  H  H93  1  0.69109694  0.54809350  0.69109693  1
  H  H94  1  0.69109713  0.45190657  0.30890287  1
  H  H95  1  0.30890262  0.45190670  0.69109736  1
  H  H96  1  0.69109737  0.30890263  0.45190676  1
  H  H97  1  0.30890274  0.69109725  0.45190667  1
  H  H98  1  0.30890281  0.30890280  0.54809341  1
  H  H99  1  0.69109707  0.69109705  0.54809342  1
  H  H100  1  0.80890273  0.45190671  0.19109729  1
  H  H101  1  0.19109694  0.45190648  0.80890305  1
  H  H102  1  0.80890270  0.54809328  0.80890270  1
  H  H103  1  0.19109724  0.54809336  0.19109724  1
  H  H104  1  0.80890297  0.19109703  0.54809344  1
  H  H105  1  0.19109703  0.80890296  0.54809345  1
  H  H106  1  0.80890284  0.80890283  0.45190664  1
  H  H107  1  0.19109723  0.19109722  0.45190662  1
  H  H108  1  0.69109741  0.45190672  0.69109741  1
  H  H109  1  0.30890286  0.45190662  0.30890285  1
  H  H110  1  0.30890280  0.54809336  0.69109720  1
  H  H111  1  0.69109710  0.54809342  0.30890292  1
  H  H112  1  0.54809342  0.30890289  0.69109712  1
  H  H113  1  0.54809329  0.69109723  0.30890275  1
  H  H114  1  0.45190680  0.69109748  0.69109749  1
  H  H115  1  0.45190663  0.30890283  0.30890282  1
  H  H116  1  0.54809337  0.19109719  0.19109719  1
  H  H117  1  0.54809341  0.80890283  0.80890279  1
  H  H118  1  0.45190657  0.19109707  0.80890293  1
  H  H119  1  0.45190659  0.80890295  0.19109706  1
  H  H120  1  0.45190672  0.69109730  0.30890270  1
  H  H121  1  0.45190661  0.30890277  0.69109724  1
  H  H122  1  0.54809336  0.30890282  0.30890281  1
  H  H123  1  0.54809347  0.69109700  0.69109702  1
  H  H124  1  0.45190652  0.80890305  0.80890304  1
  H  H125  1  0.45190663  0.19109715  0.19109715  1
  H  H126  1  0.54809326  0.80890269  0.19109731  1
  H  H127  1  0.54809335  0.19109720  0.80890278  1
  C  C128  1  0.24999889  0.25000110  0.11140936  1
  C  C129  1  0.75000433  0.74999553  0.11140948  1
  C  C130  1  0.74999620  0.24999617  0.88859057  1
  C  C131  1  0.24999468  0.74999467  0.88859127  1
  C  C132  1  0.11140975  0.24999984  0.25000015  1
  C  C133  1  0.11140962  0.74999939  0.75000049  1
  C  C134  1  0.88859012  0.74999667  0.24999666  1
  C  C135  1  0.88859189  0.25000197  0.75000196  1
  C  C136  1  0.24999813  0.11140951  0.25000188  1
  C  C137  1  0.74999442  0.11140940  0.75000552  1
  C  C138  1  0.24999397  0.88859156  0.74999395  1
  C  C139  1  0.75000286  0.88859106  0.25000284  1
  C  C140  1  0.25000147  0.24999851  0.88859167  1
  C  C141  1  0.74999576  0.75000422  0.88859024  1
  C  C142  1  0.24999457  0.74999456  0.11140967  1
  C  C143  1  0.75000110  0.25000112  0.11140983  1
  C  C144  1  0.24999730  0.11140926  0.74999737  1
  C  C145  1  0.74999712  0.11140879  0.24999710  1
  C  C146  1  0.74999605  0.88859018  0.75000399  1
  C  C147  1  0.25000208  0.88859149  0.24999793  1
  C  C148  1  0.11140889  0.24999543  0.74999545  1
  C  C149  1  0.11140962  0.74999440  0.24999437  1
  C  C150  1  0.88859089  0.25000368  0.24999632  1
  C  C151  1  0.88859103  0.75000076  0.74999922  1
  C  C152  1  0.25000402  0.74999598  0.61141024  1
  C  C153  1  0.74999512  0.25000488  0.61140918  1
  C  C154  1  0.75000038  0.75000035  0.38859078  1
  C  C155  1  0.24999776  0.24999776  0.38859064  1
  C  C156  1  0.25000183  0.61141033  0.74999818  1
  C  C157  1  0.75000359  0.61140977  0.24999642  1
  C  C158  1  0.24999799  0.38859069  0.24999798  1
  C  C159  1  0.74999464  0.38859045  0.74999471  1
  C  C160  1  0.25000265  0.74999740  0.38859093  1
  C  C161  1  0.74999605  0.25000397  0.38859106  1
  C  C162  1  0.25000223  0.25000223  0.61141049  1
  C  C163  1  0.75000258  0.75000257  0.61140878  1
  C  C164  1  0.24999781  0.61141029  0.24999781  1
  C  C165  1  0.75000168  0.61140886  0.75000170  1
  C  C166  1  0.75000181  0.38859009  0.24999819  1
  C  C167  1  0.25000711  0.38859040  0.74999286  1
  C  C168  1  0.61141046  0.25000057  0.74999942  1
  C  C169  1  0.61140860  0.74999931  0.25000069  1
  C  C170  1  0.38859075  0.74999136  0.74999132  1
  C  C171  1  0.38859100  0.24999993  0.24999991  1
  C  C172  1  0.61140976  0.24999981  0.24999980  1
  C  C173  1  0.61140961  0.75000317  0.75000322  1
  C  C174  1  0.38859019  0.25000429  0.74999570  1
  C  C175  1  0.38859084  0.74999734  0.25000263  1
  C  C176  1  0.25000007  0.24999994  0.05401437  1
  C  C177  1  0.74999955  0.75000050  0.05401432  1
  C  C178  1  0.75000035  0.25000037  0.94598579  1
  C  C179  1  0.25000016  0.75000014  0.94598556  1
  C  C180  1  0.05401422  0.25000002  0.24999998  1
  C  C181  1  0.05401444  0.74999998  0.75000011  1
  C  C182  1  0.94598568  0.75000013  0.25000016  1
  C  C183  1  0.94598518  0.24999984  0.74999987  1
  C  C184  1  0.25000024  0.05401417  0.24999976  1
  C  C185  1  0.75000027  0.05401427  0.74999972  1
  C  C186  1  0.25000035  0.94598539  0.75000034  1
  C  C187  1  0.74999958  0.94598564  0.24999957  1
  C  C188  1  0.24999991  0.25000010  0.94598540  1
  C  C189  1  0.75000038  0.74999960  0.94598554  1
  C  C190  1  0.25000035  0.75000036  0.05401427  1
  C  C191  1  0.74999979  0.24999981  0.05401423  1
  C  C192  1  0.25000028  0.05401435  0.75000030  1
  C  C193  1  0.75000018  0.05401459  0.25000020  1
  C  C194  1  0.75000027  0.94598573  0.74999968  1
  C  C195  1  0.24999969  0.94598540  0.25000031  1
  C  C196  1  0.05401452  0.25000038  0.75000038  1
  C  C197  1  0.05401430  0.75000034  0.25000037  1
  C  C198  1  0.94598556  0.24999978  0.25000022  1
  C  C199  1  0.94598545  0.74999987  0.75000017  1
  C  C200  1  0.24999972  0.75000028  0.55401403  1
  C  C201  1  0.75000026  0.24999975  0.55401435  1
  C  C202  1  0.75000003  0.75000001  0.44598558  1
  C  C203  1  0.25000024  0.25000023  0.44598557  1
  C  C204  1  0.24999990  0.55401409  0.75000009  1
  C  C205  1  0.74999969  0.55401433  0.25000031  1
  C  C206  1  0.25000004  0.44598569  0.25000004  1
  C  C207  1  0.75000061  0.44598579  0.75000056  1
  C  C208  1  0.24999988  0.75000007  0.44598561  1
  C  C209  1  0.75000030  0.24999969  0.44598554  1
  C  C210  1  0.24999977  0.24999976  0.55401402  1
  C  C211  1  0.74999971  0.74999970  0.55401450  1
  C  C212  1  0.25000011  0.55401412  0.25000011  1
  C  C213  1  0.74999954  0.55401432  0.74999956  1
  C  C214  1  0.74999994  0.44598580  0.25000005  1
  C  C215  1  0.24999952  0.44598572  0.75000049  1
  C  C216  1  0.55401400  0.25000009  0.74999991  1
  C  C217  1  0.55401459  0.74999988  0.25000009  1
  C  C218  1  0.44598558  0.75000062  0.75000064  1
  C  C219  1  0.44598561  0.24999999  0.24999999  1
  C  C220  1  0.55401421  0.25000004  0.25000003  1
  C  C221  1  0.55401416  0.74999962  0.74999958  1
  C  C222  1  0.44598583  0.24999970  0.75000028  1
  C  C223  1  0.44598568  0.75000031  0.24999969  1
  C  C224  1  0.28322259  0.21677740  0.02679880  1
  C  C225  1  0.71677777  0.78322223  0.02679863  1
  C  C226  1  0.71677716  0.21677717  0.97320101  1
  C  C227  1  0.28322262  0.78322262  0.97320138  1
  C  C228  1  0.02679904  0.28322266  0.21677734  1
  C  C229  1  0.02679884  0.71677718  0.78322277  1
  C  C230  1  0.97320084  0.71677742  0.21677743  1
  C  C231  1  0.97320109  0.28322299  0.78322298  1
  C  C232  1  0.21677717  0.02679897  0.28322282  1
  C  C233  1  0.78322249  0.02679858  0.71677748  1
  C  C234  1  0.21677689  0.97320044  0.71677692  1
  C  C235  1  0.78322292  0.97320092  0.28322291  1
  C  C236  1  0.21677740  0.28322260  0.97320113  1
  C  C237  1  0.78322236  0.71677769  0.97320141  1
  C  C238  1  0.21677702  0.71677701  0.02679917  1
  C  C239  1  0.78322289  0.28322287  0.02679891  1
  C  C240  1  0.28322242  0.02679865  0.78322241  1
  C  C241  1  0.71677714  0.02679859  0.21677712  1
  C  C242  1  0.71677697  0.97320079  0.78322300  1
  C  C243  1  0.28322290  0.97320090  0.21677710  1
  C  C244  1  0.02679913  0.21677701  0.71677698  1
  C  C245  1  0.02679853  0.78322247  0.28322244  1
  C  C246  1  0.97320124  0.21677750  0.28322249  1
  C  C247  1  0.97320105  0.78322270  0.71677724  1
  C  C248  1  0.71677698  0.78322306  0.97320121  1
  C  C249  1  0.28322268  0.21677732  0.97320114  1
  C  C250  1  0.28322241  0.78322245  0.02679862  1
  C  C251  1  0.71677755  0.21677752  0.02679887  1
  C  C252  1  0.97320125  0.71677757  0.78322246  1
  C  C253  1  0.97320088  0.28322286  0.21677715  1
  C  C254  1  0.02679873  0.28322229  0.78322230  1
  C  C255  1  0.02679933  0.71677696  0.21677695  1
  C  C256  1  0.78322252  0.97320142  0.71677755  1
  C  C257  1  0.21677757  0.97320117  0.28322244  1
  C  C258  1  0.78322267  0.02679897  0.28322267  1
  C  C259  1  0.21677713  0.02679938  0.71677712  1
  C  C260  1  0.78322301  0.71677698  0.02679888  1
  C  C261  1  0.21677734  0.28322266  0.02679889  1
  C  C262  1  0.78322221  0.28322219  0.97320129  1
  C  C263  1  0.21677726  0.71677723  0.97320088  1
  C  C264  1  0.71677784  0.97320155  0.21677784  1
  C  C265  1  0.28322250  0.97320144  0.78322250  1
  C  C266  1  0.28322246  0.02679909  0.21677753  1
  C  C267  1  0.71677724  0.02679922  0.78322280  1
  C  C268  1  0.97320150  0.78322238  0.28322236  1
  C  C269  1  0.97320100  0.21677726  0.71677725  1
  C  C270  1  0.02679894  0.78322292  0.71677706  1
  C  C271  1  0.02679883  0.21677729  0.28322271  1
  C  C272  1  0.28322273  0.71677729  0.52679922  1
  C  C273  1  0.71677713  0.28322286  0.52679948  1
  C  C274  1  0.71677724  0.71677724  0.47320110  1
  C  C275  1  0.28322243  0.28322243  0.47320135  1
  C  C276  1  0.21677743  0.52679870  0.78322256  1
  C  C277  1  0.78322297  0.52679928  0.21677702  1
  C  C278  1  0.21677732  0.47320086  0.21677732  1
  C  C279  1  0.78322227  0.47320081  0.78322227  1
  C  C280  1  0.21677721  0.78322282  0.47320092  1
  C  C281  1  0.78322250  0.21677749  0.47320123  1
  C  C282  1  0.21677762  0.21677761  0.52679868  1
  C  C283  1  0.78322294  0.78322293  0.52679930  1
  C  C284  1  0.28322263  0.52679901  0.28322262  1
  C  C285  1  0.71677794  0.52679909  0.71677794  1
  C  C286  1  0.71677734  0.47320115  0.28322266  1
  C  C287  1  0.28322305  0.47320068  0.71677697  1
  C  C288  1  0.71677698  0.28322303  0.47320057  1
  C  C289  1  0.28322281  0.71677719  0.47320081  1
  C  C290  1  0.28322275  0.28322277  0.52679885  1
  C  C291  1  0.71677755  0.71677757  0.52679889  1
  C  C292  1  0.78322277  0.47320069  0.21677721  1
  C  C293  1  0.21677775  0.47320146  0.78322226  1
  C  C294  1  0.78322296  0.52679938  0.78322295  1
  C  C295  1  0.21677723  0.52679912  0.21677722  1
  C  C296  1  0.78322244  0.21677756  0.52679877  1
  C  C297  1  0.21677767  0.78322234  0.52679898  1
  C  C298  1  0.78322263  0.78322268  0.47320080  1
  C  C299  1  0.21677715  0.21677717  0.47320125  1
  C  C300  1  0.71677675  0.47320071  0.71677678  1
  C  C301  1  0.28322263  0.47320098  0.28322263  1
  C  C302  1  0.28322263  0.52679919  0.71677738  1
  C  C303  1  0.71677748  0.52679883  0.28322250  1
  C  C304  1  0.52679902  0.28322252  0.71677749  1
  C  C305  1  0.52679935  0.71677729  0.28322274  1
  C  C306  1  0.47320075  0.71677667  0.71677667  1
  C  C307  1  0.47320091  0.28322265  0.28322266  1
  C  C308  1  0.52679907  0.21677728  0.21677728  1
  C  C309  1  0.52679885  0.78322279  0.78322285  1
  C  C310  1  0.47320119  0.21677755  0.78322244  1
  C  C311  1  0.47320083  0.78322237  0.21677762  1
  C  C312  1  0.47320064  0.71677709  0.28322291  1
  C  C313  1  0.47320097  0.28322285  0.71677715  1
  C  C314  1  0.52679912  0.28322267  0.28322267  1
  C  C315  1  0.52679890  0.71677778  0.71677777  1
  C  C316  1  0.47320145  0.78322228  0.78322227  1
  C  C317  1  0.47320093  0.21677738  0.21677739  1
  C  C318  1  0.52679923  0.78322299  0.21677704  1
  C  C319  1  0.52679897  0.21677723  0.78322279  1
  O  O320  1  0.25000015  0.25000004  0.25000000  1
  O  O321  1  0.74999977  0.75000016  0.25000007  1
  O  O322  1  0.75000041  0.24999992  0.74999999  1
  O  O323  1  0.25000011  0.75000037  0.75000029  1
  O  O324  1  0.24999984  0.24999999  0.75000036  1
  O  O325  1  0.75000007  0.74999978  0.74999983  1
  O  O326  1  0.25000009  0.75000032  0.25000016  1
  O  O327  1  0.75000008  0.24999982  0.25000018  1
  O  O328  1  0.28133664  0.21866334  0.13303648  1
  O  O329  1  0.71866176  0.78133832  0.13303766  1
  O  O330  1  0.71866577  0.21866582  0.86696538  1
  O  O331  1  0.28133914  0.78133913  0.86696148  1
  O  O332  1  0.13303591  0.28133602  0.21866398  1
  O  O333  1  0.13303569  0.71866428  0.78133570  1
  O  O334  1  0.86696553  0.71866581  0.21866582  1
  O  O335  1  0.86696400  0.28133568  0.78133567  1
  O  O336  1  0.21866483  0.13303532  0.28133516  1
  O  O337  1  0.78133891  0.13303821  0.71866109  1
  O  O338  1  0.21866657  0.86696571  0.71866654  1
  O  O339  1  0.78133498  0.86696471  0.28133496  1
  O  O340  1  0.21866265  0.28133737  0.86696278  1
  O  O341  1  0.78133799  0.71866202  0.86696259  1
  O  O342  1  0.21866675  0.71866673  0.13303384  1
  O  O343  1  0.78133534  0.28133534  0.13303536  1
  O  O344  1  0.28133753  0.13303710  0.78133747  1
  O  O345  1  0.71866509  0.13303526  0.21866508  1
  O  O346  1  0.71866600  0.86696564  0.78133399  1
  O  O347  1  0.28133550  0.86696416  0.21866447  1
  O  O348  1  0.13303461  0.21866596  0.71866593  1
  O  O349  1  0.13303803  0.78133881  0.28133882  1
  O  O350  1  0.86696242  0.21866193  0.28133807  1
  O  O351  1  0.86696400  0.78133598  0.71866408  1
  O  O352  1  0.71866619  0.78133381  0.86696578  1
  O  O353  1  0.28133588  0.21866412  0.86696392  1
  O  O354  1  0.28133867  0.78133865  0.13303787  1
  O  O355  1  0.71866357  0.21866358  0.13303620  1
  O  O356  1  0.86696347  0.71866332  0.78133672  1
  O  O357  1  0.86696524  0.28133437  0.21866563  1
  O  O358  1  0.13303803  0.28133863  0.78133858  1
  O  O359  1  0.13303381  0.71866676  0.21866679  1
  O  O360  1  0.78133790  0.86696279  0.71866210  1
  O  O361  1  0.21866247  0.86696274  0.28133751  1
  O  O362  1  0.78133779  0.13303745  0.28133780  1
  O  O363  1  0.21866518  0.13303509  0.71866512  1
  O  O364  1  0.78133393  0.71866612  0.13303438  1
  O  O365  1  0.21866445  0.28133554  0.13303563  1
  O  O366  1  0.78133799  0.28133805  0.86696250  1
  O  O367  1  0.21866619  0.71866619  0.86696552  1
  O  O368  1  0.71866224  0.86696269  0.21866223  1
  O  O369  1  0.28133945  0.86696120  0.78133944  1
  O  O370  1  0.28133701  0.13303670  0.21866298  1
  O  O371  1  0.71866660  0.13303406  0.78133340  1
  O  O372  1  0.86696303  0.78133748  0.28133749  1
  O  O373  1  0.86696257  0.21866238  0.71866240  1
  O  O374  1  0.13303612  0.78133625  0.71866371  1
  O  O375  1  0.13303578  0.21866414  0.28133586  1
  O  O376  1  0.28133372  0.71866621  0.63303404  1
  O  O377  1  0.71866624  0.28133373  0.63303432  1
  O  O378  1  0.71866368  0.71866365  0.36696371  1
  O  O379  1  0.28133722  0.28133723  0.36696311  1
  O  O380  1  0.21866335  0.63303617  0.78133661  1
  O  O381  1  0.78133411  0.63303446  0.21866588  1
  O  O382  1  0.21866487  0.36696466  0.21866488  1
  O  O383  1  0.78133866  0.36696210  0.78133867  1
  O  O384  1  0.21866237  0.78133760  0.36696274  1
  O  O385  1  0.78133827  0.21866172  0.36696223  1
  O  O386  1  0.21866328  0.21866326  0.63303629  1
  O  O387  1  0.78133509  0.78133513  0.63303543  1
  O  O388  1  0.28133676  0.63303637  0.28133676  1
  O  O389  1  0.71866289  0.63303692  0.71866288  1
  O  O390  1  0.71866322  0.36696358  0.28133674  1
  O  O391  1  0.28133248  0.36696671  0.71866751  1
  O  O392  1  0.71866564  0.28133437  0.36696513  1
  O  O393  1  0.28133494  0.71866502  0.36696475  1
  O  O394  1  0.28133453  0.28133451  0.63303465  1
  O  O395  1  0.71866236  0.71866237  0.63303727  1
  O  O396  1  0.78133496  0.36696489  0.21866501  1
  O  O397  1  0.21866042  0.36696136  0.78133956  1
  O  O398  1  0.78133551  0.63303577  0.78133553  1
  O  O399  1  0.21866545  0.63303466  0.21866544  1
  O  O400  1  0.78133863  0.21866135  0.63303804  1
  O  O401  1  0.21866224  0.78133771  0.63303708  1
  O  O402  1  0.78133597  0.78133593  0.36696401  1
  O  O403  1  0.21866498  0.21866499  0.36696477  1
  O  O404  1  0.71866659  0.36696600  0.71866659  1
  O  O405  1  0.28133713  0.36696314  0.28133715  1
  O  O406  1  0.28133477  0.63303480  0.71866520  1
  O  O407  1  0.71866235  0.63303716  0.28133767  1
  O  O408  1  0.63303523  0.28133533  0.71866467  1
  O  O409  1  0.63303613  0.71866391  0.28133606  1
  O  O410  1  0.36696708  0.71866815  0.71866819  1
  O  O411  1  0.36696371  0.28133633  0.28133634  1
  O  O412  1  0.63303579  0.21866417  0.21866415  1
  O  O413  1  0.63303473  0.78133444  0.78133443  1
  O  O414  1  0.36696254  0.21866190  0.78133807  1
  O  O415  1  0.36696288  0.78133748  0.21866247  1
  O  O416  1  0.36696478  0.71866509  0.28133489  1
  O  O417  1  0.36696579  0.28133377  0.71866620  1
  O  O418  1  0.63303595  0.28133605  0.28133600  1
  O  O419  1  0.63303717  0.71866240  0.71866238  1
  O  O420  1  0.36696061  0.78134045  0.78134045  1
  O  O421  1  0.36696376  0.21866374  0.21866376  1
  O  O422  1  0.63303673  0.78133680  0.21866320  1
  O  O423  1  0.63303566  0.21866410  0.78133592  1
